Circuit: * C:\Users\Cecilie\Dropbox\ST-375\rapportAfsnit\eProblemloesning\Design\Buffer.asc

Direct Newton iteration for .op point succeeded.

Date: Mon Nov 30 11:13:26 2015
Total elapsed time: 0.059 seconds.

tnom = 27
temp = 27
method = modified trap
totiter = 2105
traniter = 2088
tranpoints = 1045
accept = 1045
rejected = 0
matrix size = 28
fillins = 38
solver = Normal
Matrix Compiler1: 3.41 KB object code size  1.1/0.7/[0.4]
Matrix Compiler2: 2.96 KB object code size  0.6/0.8/[0.6]


