Circuit: * C:\Users\Cecilie\Dropbox\ST-375\rapportAfsnit\eProblemloesning\Design\Draft2.asc

WARNING: Less than two connections to node NC_01.  This node is used by R1.
WARNING: Less than two connections to node REF_GRøN_NEGATIV.  This node is used by R4.
WARNING: Less than two connections to node V+.  This node is used by V3.
Early termination of direct N-R iteration.
Direct Newton iteration failed to find .op point.  (Use ".option noopiter" to skip.)
Starting Gmin stepping
Gmin = 10
vernier = 0.5
vernier = 0.25
vernier = 0.125
Gmin = 5.5165
vernier = 0.0625
vernier = 0.03125
vernier = 0.015625
vernier = 0.0078125
Gmin = 5.49501
vernier = 0.00390625
vernier = 0.00195313
vernier = 0.000976563
vernier = 0.000488281
Gmin = 5.50104
Gmin = 0
Gmin stepping failed

Starting source stepping with srcstepmethod=0
Source Step = 3.0303%
Source Step = 33.3333%
Source Step = 46.7803%
Source Step = 48.6742%
Source Step = 50.5682%
Source Step = 52.4621%
Source Step = 54.3561%
vernier = 0.09375
Source Step = 56.4394%
Source Step = 59.2803%
Source Step = 62.1212%
Source Step = 64.9621%
Source Step = 67.803%
vernier = 0.140625
Source Step = 70.786%
Source Step = 75.0473%
Source Step = 79.3087%
Source Step = 83.5701%
Source Step = 87.8314%
Source Step = 92.0928%
vernier = 0.210938
Source Step = 98.4848%
Source stepping succeeded in finding the operating point.


Date: Wed Dec 09 12:21:59 2015
Total elapsed time: 0.406 seconds.

tnom = 27
temp = 27
method = modified trap
totiter = 4557
traniter = 2082
tranpoints = 1042
accept = 1042
rejected = 0
matrix size = 56
fillins = 297
solver = Normal
Matrix Compiler1: 26.52 KB object code size  6.9/9.4/[2.6]
Matrix Compiler2: 9.89 KB object code size  1.7/1.6/[0.6]


