Circuit: * C:\Users\Mathias\Desktop\ST-375\rapportAfsnit\eProblemloesning\Design\Forstærker - faktor 18.asc

Direct Newton iteration failed to find .op point.  (Use ".option noopiter" to skip.)
Starting Gmin stepping
Gmin = 10
Gmin = 1.07374
Gmin = 0.115292
Gmin = 0.0123794
Gmin = 0.00132923
Gmin = 0.000142725
Gmin = 1.5325e-005
Gmin = 1.6455e-006
Gmin = 1.76685e-007
Gmin = 1.89714e-008
Gmin = 2.03704e-009
Gmin = 2.18725e-010
Gmin = 2.34854e-011
Gmin = 2.52173e-012
Gmin = 2.70769e-013
Gmin = 0
Gmin stepping succeeded in finding the operating point.


Date: Mon Nov 16 09:55:47 2015
Total elapsed time: 0.420 seconds.

tnom = 27
temp = 27
method = modified trap
totiter = 2474
traniter = 2088
tranpoints = 1045
accept = 1045
rejected = 0
matrix size = 15
fillins = 6
solver = Normal
Matrix Compiler1: 726 bytes object code size  1.2/0.7/[0.3]
Matrix Compiler2: 1.38 KB object code size  1.1/1.7/[0.8]


