<<<<<<< HEAD
Circuit: * C:\Users\Cecilie\Dropbox\ST-375\rapportAfsnit\eProblemloesning\Design\Offset.asc
=======
Circuit: * C:\Users\User\Desktop\ST-375\rapportAfsnit\eProblemloesning\Design\Offset.asc
>>>>>>> origin/master

Direct Newton iteration failed to find .op point.  (Use ".option noopiter" to skip.)
Starting Gmin stepping
Gmin = 10
Gmin = 1.07374
Gmin = 0.115292
Gmin = 0.0123794
Gmin = 0.00132923
Gmin = 0.000142725
Gmin = 1.5325e-005
Gmin = 1.6455e-006
Gmin = 1.76685e-007
Gmin = 1.89714e-008
Gmin = 2.03704e-009
Gmin = 2.18725e-010
Gmin = 2.34854e-011
Gmin = 2.52173e-012
Gmin = 2.70769e-013
Gmin = 0
Gmin stepping succeeded in finding the operating point.


<<<<<<< HEAD
Date: Mon Nov 16 09:37:53 2015
Total elapsed time: 0.187 seconds.
=======
Date: Mon Nov 16 09:40:42 2015
Total elapsed time: 0.256 seconds.
>>>>>>> origin/master

tnom = 27
temp = 27
method = modified trap
totiter = 2468
traniter = 2102
tranpoints = 1052
accept = 1052
rejected = 0
matrix size = 18
fillins = 10
solver = Normal
<<<<<<< HEAD
Matrix Compiler1: 978 bytes object code size  0.6/0.3/[0.1]
Matrix Compiler2: off  [0.5]/0.7/0.6
=======
Matrix Compiler1: 978 bytes object code size  2.6/2.2/[2.0]
Matrix Compiler2: off  [2.6]/4.9/3.0
>>>>>>> origin/master


