Circuit: * C:\Users\Cecilie\Dropbox\ST-375\rapportAfsnit\eProblemloesning\Design\SpaendingsRef_offset.asc

Direct Newton iteration for .op point succeeded.

Date: Tue Dec 08 11:00:30 2015
Total elapsed time: 0.066 seconds.

tnom = 27
temp = 27
method = modified trap
totiter = 2102
traniter = 2082
tranpoints = 1042
accept = 1042
rejected = 0
matrix size = 7
fillins = 2
solver = Normal
Matrix Compiler1: 314 bytes object code size  0.2/0.2/[0.1]
Matrix Compiler2: off  [0.0]/0.2/0.1


