Circuit: * C:\Users\Cecilie\Dropbox\ST-375\rapportAfsnit\eProblemloesning\Design\SpaendingsRef_offset.asc

WARNING: Less than two connections to node V+.  This node is used by V4.
Direct Newton iteration failed to find .op point.  (Use ".option noopiter" to skip.)
Starting Gmin stepping
Gmin = 10
vernier = 0.5
vernier = 0.25
vernier = 0.125
Gmin = 5.5165
vernier = 0.0625
vernier = 0.03125
vernier = 0.015625
vernier = 0.0078125
Gmin = 5.49501
vernier = 0.00390625
vernier = 0.00195313
vernier = 0.000976563
vernier = 0.000488281
Gmin = 5.50104
Gmin = 0
Gmin stepping failed

Starting source stepping with srcstepmethod=0
Source Step = 3.0303%
Source Step = 33.3333%
Source Step = 63.6364%
Source Step = 70.8333%
Source Step = 72.7273%
Source Step = 74.6212%
Source Step = 76.5152%
Source Step = 78.4091%
vernier = 0.09375
Source Step = 80.7765%
Source Step = 83.6174%
Source Step = 86.4583%
Source Step = 89.2992%
Source Step = 92.1402%
vernier = 0.140625
Source Step = 95.5492%
Source Step = 99.8106%
Source stepping succeeded in finding the operating point.


Date: Wed Dec 09 12:04:55 2015
Total elapsed time: 0.191 seconds.

tnom = 27
temp = 27
method = modified trap
totiter = 4428
traniter = 2082
tranpoints = 1042
accept = 1042
rejected = 0
matrix size = 40
fillins = 48
solver = Normal
Matrix Compiler1: 3.59 KB object code size  1.8/0.8/[0.5]
Matrix Compiler2:     302 opcodes  0.9/[0.8]/1.6


