Circuit: * C:\Users\Cecilie\Dropbox\ST-375\rapportAfsnit\eProblemloesning\Design\SpaendingsRef_offset.asc

Direct Newton iteration for .op point succeeded.

Date: Wed Dec 02 13:07:03 2015
Total elapsed time: 0.059 seconds.

tnom = 27
temp = 27
method = modified trap
totiter = 2108
traniter = 2088
tranpoints = 1045
accept = 1045
rejected = 0
matrix size = 7
fillins = 2
solver = Normal
Matrix Compiler1: 314 bytes object code size  0.2/0.1/[0.1]
Matrix Compiler2: off  [0.1]/0.2/0.3


