Circuit: * C:\Users\Mathias\Desktop\ST-375\rapportAfsnit\eProblemloesning\Design\spaeningsforsyning.asc

Direct Newton iteration for .op point succeeded.

Date: Mon Nov 30 12:56:12 2015
Total elapsed time: 0.219 seconds.

tnom = 27
temp = 27
method = modified trap
totiter = 2537
traniter = 2520
tranpoints = 1055
accept = 1049
rejected = 6
matrix size = 28
fillins = 38
solver = Normal
Matrix Compiler1: 3.41 KB object code size  2.7/1.5/[1.0]
Matrix Compiler2: off  [1.3]/1.9/1.5


