Circuit: * C:\Users\Cecilie\Dropbox\ST-375\rapportAfsnit\eProblemloesning\Design\spaeningsforsyning.asc

Direct Newton iteration failed to find .op point.  (Use ".option noopiter" to skip.)
Starting Gmin stepping
Gmin = 10
Gmin = 1.07374
Gmin = 0.115292
Gmin = 0.0123794
Gmin = 0.00132923
Gmin = 0.000142725
Gmin = 1.5325e-005
Gmin = 1.6455e-006
Gmin = 1.76685e-007
Gmin = 1.89714e-008
Gmin = 2.03704e-009
Gmin = 2.18725e-010
Gmin = 2.34854e-011
Gmin = 2.52173e-012
Gmin = 2.70769e-013
Gmin = 0
Gmin stepping succeeded in finding the operating point.


Date: Fri Dec 04 16:20:41 2015
Total elapsed time: 0.547 seconds.

tnom = 27
temp = 27
method = modified trap
totiter = 23386
traniter = 23020
tranpoints = 6496
accept = 4955
rejected = 1541
matrix size = 32
fillins = 36
solver = Normal
Thread vector: 21.5/14.6[3] 8.7/7.2[3] 3.6/3.1[2] 0.3/0.9[1]  2592/500
Matrix Compiler1: 2.63 KB object code size  1.4/1.2/[0.4]
Matrix Compiler2: 3.35 KB object code size  0.7/1.1/[0.6]


