Circuit: * C:\Users\Mathias\Desktop\ST-375\rapportAfsnit\eProblemloesning\Design\spaeningsforsyning.asc

Direct Newton iteration for .op point succeeded.

Date: Mon Nov 30 13:48:41 2015
Total elapsed time: 0.064 seconds.

tnom = 27
temp = 27
method = modified trap
totiter = 2149
traniter = 2132
tranpoints = 1045
accept = 1045
rejected = 0
matrix size = 28
fillins = 38
solver = Normal
Matrix Compiler1: 3.41 KB object code size  0.9/0.5/[0.4]
Matrix Compiler2: 2.96 KB object code size  0.4/0.6/[0.4]


