Circuit: * C:\Users\Mathias\Desktop\ST-375\rapportAfsnit\eProblemloesning\Design\spaeningsforsyning.asc

Direct Newton iteration for .op point succeeded.

Date: Mon Nov 30 14:35:16 2015
Total elapsed time: 0.060 seconds.

tnom = 27
temp = 27
method = modified trap
totiter = 2157
traniter = 2140
tranpoints = 1045
accept = 1045
rejected = 0
matrix size = 28
fillins = 38
solver = Normal
Matrix Compiler1: 3.41 KB object code size  0.7/0.4/[0.2]
Matrix Compiler2:     222 opcodes  0.4/[0.4]/0.5


