Circuit: * C:\Users\Cecilie\Dropbox\ST-375\rapportAfsnit\eProblemloesning\Design\spaeningsforsyning.asc

Direct Newton iteration for .op point succeeded.

Date: Mon Dec 07 09:41:19 2015
Total elapsed time: 0.079 seconds.

tnom = 27
temp = 27
method = modified trap
totiter = 2107
traniter = 2090
tranpoints = 1046
accept = 1046
rejected = 0
matrix size = 28
fillins = 38
solver = Normal
Matrix Compiler1: 3.41 KB object code size  1.1/0.6/[0.3]
Matrix Compiler2: 2.96 KB object code size  0.5/0.6/[0.4]


