Circuit: * C:\Users\Cecilie\Dropbox\ST-375\rapportAfsnit\yBilag\Accelerometer.asc

Direct Newton iteration for .op point succeeded.

Date: Thu Jan 21 08:54:07 2016
Total elapsed time: 0.080 seconds.

tnom = 27
temp = 27
method = modified trap
totiter = 2105
traniter = 2088
tranpoints = 1045
accept = 1045
rejected = 0
matrix size = 30
fillins = 38
solver = Normal
Matrix Compiler1: 3.49 KB object code size  1.1/0.6/[0.5]
Matrix Compiler2: 3.08 KB object code size  0.5/0.9/[0.4]


