Circuit: * C:\Users\Mathias\Desktop\ST-375\rapportAfsnit\eProblemloesning\Design\Offset\Offset.asc

Direct Newton iteration for .op point succeeded.

Date: Tue Nov 24 10:19:56 2015
Total elapsed time: 0.145 seconds.

tnom = 27
temp = 27
method = modified trap
totiter = 2133
traniter = 2102
tranpoints = 1052
accept = 1052
rejected = 0
matrix size = 32
fillins = 39
solver = Normal
Matrix Compiler1: 3.63 KB object code size  3.5/2.2/[1.2]
Matrix Compiler2: 3.25 KB object code size  1.7/2.6/[1.8]


