Circuit: * C:\Users\Mathias\Desktop\ST-375\rapportAfsnit\eProblemloesning\Design\Offset\Offset.asc

Direct Newton iteration failed to find .op point.  (Use ".option noopiter" to skip.)
Starting Gmin stepping
Increasing initial diagonal Gmin to 100
Gmin = 100
vernier = 0.5
vernier = 0.25
Gmin = 34.2672
vernier = 0.125
vernier = 0.0625
vernier = 0.03125
vernier = 0.015625
Gmin = 33.0995
vernier = 0.0078125
vernier = 0.00390625
vernier = 0.00195313
Gmin = 32.9705
vernier = 0.000976563
vernier = 0.000488281
Gmin = 0
Gmin stepping failed

Starting source stepping with srcstepmethod=0
Source Step = 3.0303%
Source Step = 33.3333%
Source Step = 63.6364%
Source Step = 93.9394%
Source stepping succeeded in finding the operating point.


Date: Tue Nov 24 14:49:32 2015
Total elapsed time: 0.501 seconds.

tnom = 27
temp = 27
method = modified trap
totiter = 3885
traniter = 2102
tranpoints = 1052
accept = 1052
rejected = 0
matrix size = 32
fillins = 56
solver = Normal
Matrix Compiler1: 3.96 KB object code size  3.9/2.4/[1.2]
Matrix Compiler2: 3.57 KB object code size  1.9/2.1/[1.2]


