Circuit: * C:\Users\Cecilie\Dropbox\ST-375\rapportAfsnit\eProblemloesning\Design\Offset\Offset_generisk.asc

Direct Newton iteration for .op point succeeded.

Date: Mon Dec 07 13:23:52 2015
Total elapsed time: 0.076 seconds.

tnom = 27
temp = 27
method = modified trap
totiter = 2109
traniter = 2102
tranpoints = 1052
accept = 1052
rejected = 0
matrix size = 12
fillins = 1
solver = Normal
Matrix Compiler1: 482 bytes object code size  0.3/0.2/[0.1]
Matrix Compiler2: 982 bytes object code size  0.2/0.3/[0.2]


