Circuit: * C:\Users\Mathias\Desktop\ST-375\rapportAfsnit\eProblemloesning\Design\Offset\Offset.asc

Direct Newton iteration for .op point succeeded.

Date: Fri Nov 20 15:20:13 2015
Total elapsed time: 0.195 seconds.

tnom = 27
temp = 27
method = modified trap
totiter = 2141
traniter = 2102
tranpoints = 1052
accept = 1052
rejected = 0
matrix size = 32
fillins = 39
solver = Normal
Matrix Compiler1: 3.63 KB object code size  3.7/2.2/[2.0]
Matrix Compiler2: 3.25 KB object code size  1.8/3.1/[1.4]


