Circuit: * C:\Users\Mathias\Desktop\ST-375\rapportAfsnit\eProblemloesning\Design\Komparator_Feedback\Komparator 27.11.15.asc

Direct Newton iteration failed to find .op point.  (Use ".option noopiter" to skip.)
Starting Gmin stepping
Increasing initial diagonal Gmin to 100
Increasing initial diagonal Gmin to 1000
Gmin = 1000
Gmin = 107.374
Gmin = 11.5292
vernier = 0.5
vernier = 0.25
vernier = 0.125
Gmin = 5.55573
vernier = 0.0625
vernier = 0.03125
vernier = 0.015625
vernier = 0.0078125
Gmin = 5.44897
vernier = 0.00390625
vernier = 0.00195313
vernier = 0.000976563
vernier = 0.000488281
Gmin = 5.43304
Singular matrix:  Check nodes u4:n004 and n018
   Iteration No. 4
Gmin = 0
Singular matrix:  Check node n018
   Iteration No. 1
Gmin stepping failed

Starting source stepping with srcstepmethod=0
Source Step = 3.0303%
Source Step = 33.3333%
Source Step = 35.4167%
Source Step = 37.3106%
Source Step = 39.2045%
Source Step = 41.0985%
Source Step = 42.9924%
vernier = 0.09375
Source Step = 45.4545%
Source Step = 48.2955%
Source Step = 51.1364%
Source Step = 53.9773%
Source Step = 56.8182%
vernier = 0.140625
Source Step = 60.3693%
Source Step = 64.6307%
Source Step = 68.892%
Source Step = 73.1534%
Source Step = 77.4148%
vernier = 0.210938
Source Step = 82.5284%
Source Step = 88.9205%
Source Step = 95.3125%
Source stepping succeeded in finding the operating point.

Heightened Def Con from 0.0511649 to 0.0511649
Heightened Def Con from 0.0512514 to 0.0512514

Date: Mon Dec 07 11:23:02 2015
Total elapsed time: 2.163 seconds.

tnom = 27
temp = 27
method = modified trap
totiter = 10691
traniter = 7755
tranpoints = 2358
accept = 1965
rejected = 395
matrix size = 221
fillins = 309
solver = Normal
Thread vector: 108.3/58.4[4] 24.5/13.0[4] 19.7/11.2[4] 1.2/2.7[1]  2592/500
Matrix Compiler1: 23.63 KB object code size  9.7/4.5/[2.4]
Matrix Compiler2: 25.06 KB object code size  6.3/7.4/[1.7]


