Circuit: * C:\Users\User\Desktop\ST-375\rapportAfsnit\eProblemloesning\Design\Komparator_Feedback\Komparator07.12.15 -kopi.asc

Early termination of direct N-R iteration.
Direct Newton iteration failed to find .op point.  (Use ".option noopiter" to skip.)
Starting Gmin stepping
Gmin = 10
vernier = 0.5
vernier = 0.25
vernier = 0.125
Gmin = 5.5165
vernier = 0.0625
vernier = 0.03125
vernier = 0.015625
vernier = 0.0078125
Gmin = 5.49501
vernier = 0.00390625
vernier = 0.00195313
vernier = 0.000976563
vernier = 0.000488281
Gmin = 5.50104
Gmin = 0
Gmin stepping failed

Starting source stepping with srcstepmethod=0
Source Step = 3.0303%
Source Step = 33.3333%
Source Step = 63.6364%
Source Step = 93.9394%
Source stepping succeeded in finding the operating point.


Date: Mon Dec 07 18:13:24 2015
Total elapsed time: 5.065 seconds.

tnom = 27
temp = 27
method = modified trap
totiter = 8623
traniter = 6821
tranpoints = 2054
accept = 1782
rejected = 272
matrix size = 253
fillins = 2842
solver = Normal
Thread vector: 91.0/51.4[2] 30.1/25.7[2] 18.0/14.4[2] 6.1/61.0[1]  2592/500
Matrix Compiler1: 711.54 KB object code size  253.8/155.0/[123.1]
Matrix Compiler2: 67.91 KB object code size  13.0/17.8/[10.7]


