Circuit: * C:\Users\Mathias\Desktop\ST-375\rapportAfsnit\eProblemloesning\Design\Komparator_Feedback\Komparator07.12.15.asc

Early termination of direct N-R iteration.
Direct Newton iteration failed to find .op point.  (Use ".option noopiter" to skip.)
Starting Gmin stepping
Gmin = 10
vernier = 0.5
vernier = 0.25
vernier = 0.125
Gmin = 5.5165
vernier = 0.0625
vernier = 0.03125
vernier = 0.015625
vernier = 0.0078125
Gmin = 5.49501
vernier = 0.00390625
vernier = 0.00195313
vernier = 0.000976563
vernier = 0.000488281
Gmin = 5.50104
Gmin = 0
Gmin stepping failed

Starting source stepping with srcstepmethod=0
Source Step = 3.0303%
Source Step = 33.3333%
Source Step = 63.6364%
Source Step = 93.9394%
Source stepping succeeded in finding the operating point.


Date: Mon Dec 14 22:38:07 2015
Total elapsed time: 2.896 seconds.

tnom = 27
temp = 27
method = modified trap
totiter = 9043
traniter = 7229
tranpoints = 2130
accept = 1839
rejected = 291
matrix size = 254
fillins = 2386
solver = Normal
Thread vector: 80.6/52.9[4] 22.4/15.3[4] 18.9/14.8[4] 1.5/2.3[1]  2592/500
Matrix Compiler1: 540.90 KB object code size  136.2/68.6/[51.8]
Matrix Compiler2: 60.43 KB object code size  9.4/8.8/[2.4]


