Circuit: * C:\Users\Mathias\Desktop\ST-375\rapportAfsnit\eProblemloesning\Design\Komparator_Feedback\Komparator07.12.15.asc

Early termination of direct N-R iteration.
Direct Newton iteration failed to find .op point.  (Use ".option noopiter" to skip.)
Starting Gmin stepping
Gmin = 10
vernier = 0.5
vernier = 0.25
vernier = 0.125
Gmin = 5.5165
vernier = 0.0625
vernier = 0.03125
vernier = 0.015625
vernier = 0.0078125
Gmin = 5.49501
vernier = 0.00390625
vernier = 0.00195313
vernier = 0.000976563
vernier = 0.000488281
Gmin = 5.50104
Gmin = 0
Gmin stepping failed

Starting source stepping with srcstepmethod=0
Source Step = 3.0303%
Source Step = 33.3333%
Source Step = 63.6364%
Source Step = 93.9394%
Source stepping succeeded in finding the operating point.


Date: Mon Dec 14 13:18:59 2015
Total elapsed time: 3.217 seconds.

tnom = 27
temp = 27
method = modified trap
totiter = 10985
traniter = 9194
tranpoints = 2565
accept = 2142
rejected = 423
matrix size = 255
fillins = 2818
solver = Normal
Thread vector: 45.1/31.6[4] 21.3/14.8[4] 19.6/14.2[4] 1.5/2.7[1]  2592/500
Matrix Compiler1: 663.61 KB object code size  176.2/83.9/[63.7]
Matrix Compiler2: 67.63 KB object code size  9.6/9.1/[3.0]


