Circuit: * C:\Users\Mathias\Desktop\ST-375\rapportAfsnit\eProblemloesning\Design\Komparator_Feedback\Komparator07.12.15.asc

Early termination of direct N-R iteration.
Direct Newton iteration failed to find .op point.  (Use ".option noopiter" to skip.)
Starting Gmin stepping
Gmin = 10
vernier = 0.5
vernier = 0.25
vernier = 0.125
Gmin = 5.5165
vernier = 0.0625
vernier = 0.03125
vernier = 0.015625
vernier = 0.0078125
Gmin = 5.49501
vernier = 0.00390625
vernier = 0.00195313
vernier = 0.000976563
vernier = 0.000488281
Gmin = 5.50104
Gmin = 0
Gmin stepping failed

Starting source stepping with srcstepmethod=0
Source Step = 3.0303%
Source Step = 33.3333%
Source Step = 63.6364%
Source Step = 93.9394%
Source stepping succeeded in finding the operating point.


Date: Tue Dec 15 09:35:34 2015
Total elapsed time: 12.380 seconds.

tnom = 27
temp = 27
method = modified trap
totiter = 9324
traniter = 7510
tranpoints = 2175
accept = 1864
rejected = 311
matrix size = 254
fillins = 3027
solver = Normal
Thread vector: 142.8/113.4[4] 99.6/78.8[4] 67.5/53.1[4] 6.0/9.5[1]  2592/500
Matrix Compiler1: 761.96 KB object code size  772.9/337.8/[248.5]
Matrix Compiler2: 71.24 KB object code size  33.8/30.9/[8.5]


