Circuit: * C:\Users\User\Desktop\ST-375\rapportAfsnit\eProblemloesning\Design\Komparator\Draft1.asc

Direct Newton iteration failed to find .op point.  (Use ".option noopiter" to skip.)
Starting Gmin stepping
Increasing initial diagonal Gmin to 100
Increasing initial diagonal Gmin to 1000
Gmin = 1000
Gmin = 107.374
Gmin = 11.5292
Gmin = 1.23794
Gmin = 0.132923
Gmin = 0.0142725
Gmin = 0.0015325
Gmin = 0.00016455
Gmin = 1.76685e-005
Gmin = 1.89714e-006
Gmin = 2.03704e-007
Gmin = 2.18725e-008
Gmin = 2.34854e-009
Gmin = 2.52173e-010
Gmin = 2.70769e-011
Gmin = 2.90735e-012
Gmin = 3.12175e-013
Gmin = 0
Gmin stepping succeeded in finding the operating point.


Date: Fri Nov 27 13:12:50 2015
Total elapsed time: 0.387 seconds.

tnom = 27
temp = 27
method = modified trap
totiter = 3802
traniter = 3057
tranpoints = 1275
accept = 1202
rejected = 73
matrix size = 26
fillins = 2
solver = Normal
Thread vector: 36.5/22.8[2] 7.8/4.4[2] 4.4/4.5[1] 1.8/4.1[1]  2592/500
Matrix Compiler1: 1.14 KB object code size  2.3/1.7/[1.6]
Matrix Compiler2: off  [2.0]/2.7/2.8


