Circuit: *

Direct Newton iteration failed to find .op point.  (Use ".option noopiter" to skip.)
Starting Gmin stepping
Gmin = 10
Gmin = 1.07374
Gmin = 0.115292
Gmin = 0.0123794
Gmin = 0.00132923
Gmin = 0.000142725
Gmin = 1.5325e-05
Gmin = 1.6455e-06
Gmin = 1.76685e-07
Gmin = 1.89714e-08
Gmin = 2.03704e-09
Gmin = 2.18725e-10
Gmin = 2.34854e-11
Gmin = 2.52173e-12
Gmin = 2.70769e-13
Gmin = 0
Gmin stepping succeeded in finding the operating point.


Date: Mon Nov 30 11:33:57 2015
Total elapsed time: 0.245 seconds.

tnom = 27
temp = 27
method = modified trap
totiter = 2944
traniter = 2578
tranpoints = 1068
accept = 1062
rejected = 6
matrix size = 14
fillins = 6
solver = Normal
Matrix Compiler1: 640 object code size  0.5/0.2/[0.2]
Matrix Compiler2: off

