Circuit: * C:\Users\User\Desktop\ST-375\rapportAfsnit\eProblemloesning\Design\Komparator\Komparator system.asc

Early termination of direct N-R iteration.
Direct Newton iteration failed to find .op point.  (Use ".option noopiter" to skip.)
Starting Gmin stepping
Gmin = 10
vernier = 0.5
vernier = 0.25
vernier = 0.125
Gmin = 5.5165
vernier = 0.0625
vernier = 0.03125
vernier = 0.015625
vernier = 0.0078125
Gmin = 5.49501
vernier = 0.00390625
vernier = 0.00195313
vernier = 0.000976563
vernier = 0.000488281
Gmin = 5.50104
Gmin = 0
Gmin stepping succeeded in finding the operating point.


Date: Mon Nov 23 20:28:16 2015
Total elapsed time: 4.063 seconds.

tnom = 27
temp = 27
method = modified trap
totiter = 24929
traniter = 23474
tranpoints = 5322
accept = 3983
rejected = 1339
matrix size = 221
fillins = 587
solver = Normal
Thread vector: 74.1/46.2[2] 50.8/19.6[2] 9.5/8.1[2] 8.3/173.6[1]  2592/500
Matrix Compiler1: 37.72 KB object code size  25.6/13.1/[6.4]
Matrix Compiler2: 29.32 KB object code size  12.6/50.8/[9.2]


