Circuit: * C:\Users\User\Desktop\ST-375\rapportAfsnit\eProblemloesning\Design\Komparator\Komparator.asc

Direct Newton iteration failed to find .op point.  (Use ".option noopiter" to skip.)
Starting Gmin stepping
Increasing initial diagonal Gmin to 100
Increasing initial diagonal Gmin to 1000
Gmin = 1000
Gmin = 107.374
Gmin = 11.5292
Gmin = 1.23794
Gmin = 0.132923
Gmin = 0.0142725
Gmin = 0.0015325
Gmin = 0.00016455
Gmin = 1.76685e-005
Gmin = 1.89714e-006
Gmin = 2.03704e-007
Gmin = 2.18725e-008
Gmin = 2.34854e-009
Gmin = 2.52173e-010
Gmin = 2.70769e-011
Gmin = 2.90735e-012
Gmin = 3.12175e-013
Gmin = 0
Gmin stepping succeeded in finding the operating point.


Date: Fri Nov 27 12:51:30 2015
Total elapsed time: 2.886 seconds.

tnom = 27
temp = 27
method = modified trap
totiter = 7717
traniter = 6937
tranpoints = 2265
accept = 1900
rejected = 365
matrix size = 91
fillins = 27
solver = Normal
Matrix Compiler1: 4.83 KB object code size  5.4/3.7/[2.4]
Matrix Compiler2: 9.56 KB object code size  4.4/5.6/[2.9]


