Circuit: * C:\Users\User\Desktop\ST-375\rapportAfsnit\eProblemloesning\Design\Komparator\Komparator system.asc

Early termination of direct N-R iteration.
Direct Newton iteration failed to find .op point.  (Use ".option noopiter" to skip.)
Starting Gmin stepping
Gmin = 10
vernier = 0.5
vernier = 0.25
vernier = 0.125
Gmin = 5.5165
vernier = 0.0625
vernier = 0.03125
vernier = 0.015625
vernier = 0.0078125
Gmin = 5.49501
vernier = 0.00390625
vernier = 0.00195313
vernier = 0.000976563
vernier = 0.000488281
Gmin = 5.50104
Gmin = 0
Gmin stepping succeeded in finding the operating point.


Date: Mon Nov 23 09:27:50 2015
Total elapsed time: 3.606 seconds.

tnom = 27
temp = 27
method = modified trap
totiter = 25409
traniter = 23940
tranpoints = 5523
accept = 4064
rejected = 1459
matrix size = 242
fillins = 729
solver = Normal
Thread vector: 49.0/34.8[2] 15.5/11.9[2] 10.3/8.3[2] 5.3/6.0[1]  2592/500
Matrix Compiler1: 42.78 KB object code size  26.6/14.7/[7.6]
Matrix Compiler2: 33.93 KB object code size  13.8/14.6/[13.5]


