Circuit: * C:\Users\User\Desktop\ST-375\rapportAfsnit\eProblemloesning\Design\Komparator\Komparator system.asc

WARNING: Less than two connections to node N011.  This node is used by R10.
WARNING: Less than two connections to node N021.  This node is used by R20.
Early termination of direct N-R iteration.
Direct Newton iteration failed to find .op point.  (Use ".option noopiter" to skip.)
Starting Gmin stepping
Gmin = 10
vernier = 0.5
vernier = 0.25
vernier = 0.125
Gmin = 5.5165
vernier = 0.0625
vernier = 0.03125
vernier = 0.015625
vernier = 0.0078125
Gmin = 5.49501
vernier = 0.00390625
vernier = 0.00195313
vernier = 0.000976563
vernier = 0.000488281
Gmin = 5.50104
Gmin = 0
Gmin stepping succeeded in finding the operating point.


Date: Mon Nov 23 09:42:27 2015
Total elapsed time: 5.311 seconds.

tnom = 27
temp = 27
method = modified trap
totiter = 24203
traniter = 22755
tranpoints = 5419
accept = 3958
rejected = 1461
matrix size = 244
fillins = 1088
solver = Normal
Thread vector: 80.2/47.8[2] 17.8/10.4[2] 10.8/8.9[2] 7.9/171.0[1]  2592/500
Matrix Compiler1: 99.11 KB object code size  51.6/25.8/[19.0]
Matrix Compiler2: 39.83 KB object code size  16.6/17.0/[7.8]


