Circuit: * C:\Users\User\Desktop\ST-375\rapportAfsnit\eProblemloesning\Design\Komparator\Komparator system.asc

Early termination of direct N-R iteration.
Direct Newton iteration failed to find .op point.  (Use ".option noopiter" to skip.)
Starting Gmin stepping
Gmin = 10
vernier = 0.5
vernier = 0.25
vernier = 0.125
Gmin = 5.5165
vernier = 0.0625
vernier = 0.03125
vernier = 0.015625
vernier = 0.0078125
Gmin = 5.49501
vernier = 0.00390625
vernier = 0.00195313
vernier = 0.000976563
vernier = 0.000488281
Gmin = 5.50104
Gmin = 0
Gmin stepping succeeded in finding the operating point.


Date: Mon Nov 23 14:36:41 2015
Total elapsed time: 4.156 seconds.

tnom = 27
temp = 27
method = modified trap
totiter = 24889
traniter = 23434
tranpoints = 5366
accept = 3973
rejected = 1393
matrix size = 221
fillins = 587
solver = Normal
Thread vector: 416.0/177.9[2] 15.6/11.2[2] 9.2/7.9[2] 5.1/37.4[1]  2592/500
Matrix Compiler1: 37.72 KB object code size  22.7/20.0/[9.1]
Matrix Compiler2: 29.32 KB object code size  12.7/14.4/[5.3]


