Circuit: * C:\Users\Cecilie\Dropbox\ST-375\rapportAfsnit\eProblemloesning\Samlet_system_medlabel.asc

WARNING: Less than two connections to node V+.  This node is used by V7.
Early termination of direct N-R iteration.
Direct Newton iteration failed to find .op point.  (Use ".option noopiter" to skip.)
Starting Gmin stepping
Gmin = 10
vernier = 0.5
vernier = 0.25
vernier = 0.125
Gmin = 5.49741
vernier = 0.0625
vernier = 0.03125
vernier = 0.015625
vernier = 0.0078125
Gmin = 5.51716
vernier = 0.00390625
vernier = 0.00195313
vernier = 0.000976563
vernier = 0.000488281
Gmin = 5.50104
Gmin = 0
Gmin stepping failed

Starting source stepping with srcstepmethod=0
Source Step = 3.0303%
Source Step = 33.3333%
Source Step = 63.6364%
Source Step = 69.7058%
Starting source stepping with srcstepmethod=1
Source Step = 3.0303%
Source Step = 3.84706%
Source stepping failed

Pseudo Transient succeeded in finding the operating point.

Date: Tue Dec 08 11:30:13 2015
Total elapsed time: 15.230 seconds.

tnom = 27
temp = 27
method = modified trap
totiter = 14141
traniter = 2076
tranpoints = 1039
accept = 1039
rejected = 804
matrix size = 226
fillins = 2658
solver = Normal
Thread vector: 74.8/51.4[4] 11.1/6.3[4] 13.7/8.9[4] 3.6/3.1[2]  2592/500
Matrix Compiler1: 519.88 KB object code size  151.0/80.0/[55.1]
Matrix Compiler2: 65.87 KB object code size  16.0/13.7/[10.2]


