Circuit: * C:\Users\User\Desktop\ST-375\rapportAfsnit\eProblemloesning\Samlet_system_medlabel_nemmere.asc

Early termination of direct N-R iteration.
Direct Newton iteration failed to find .op point.  (Use ".option noopiter" to skip.)
Starting Gmin stepping
Gmin = 10
vernier = 0.5
vernier = 0.25
vernier = 0.125
Gmin = 5.49741
vernier = 0.0625
vernier = 0.03125
vernier = 0.015625
vernier = 0.0078125
Gmin = 5.51716
vernier = 0.00390625
vernier = 0.00195313
vernier = 0.000976563
vernier = 0.000488281
Gmin = 5.50104
Gmin = 0
Gmin stepping failed

Starting source stepping with srcstepmethod=0
Source Step = 3.0303%
vernier = 0.25
Source Step = 0.0177557%
Starting source stepping with srcstepmethod=1
Source Step = 3.0303%
vernier = 0.25
Source stepping failed

Pseudo Transient succeeded in finding the operating point.

Date: Wed Dec 09 14:13:02 2015
Total elapsed time: 973.071 seconds.

tnom = 27
temp = 27
method = modified trap
totiter = 618626
traniter = 8459
tranpoints = 2374
accept = 2012
rejected = 70673
matrix size = 375
fillins = 7307
solver = Normal
Thread vector: 112.3/94.0[2] 47.9/49.9[1] 49.8/64.6[1] 10.7/163.0[1]  2592/500
Matrix Compiler1:  120386 opcodes  847.8/[570.5]/717.3
Matrix Compiler2: 156.38 KB object code size  25.6/26.2/[11.9]


