Circuit: * C:\Users\Cecilie\Dropbox\ST-375\rapportAfsnit\eProblemloesning\Samlet_system.asc

Early termination of direct N-R iteration.
Direct Newton iteration failed to find .op point.  (Use ".option noopiter" to skip.)
Starting Gmin stepping
Gmin = 10
vernier = 0.5
vernier = 0.25
vernier = 0.125
Gmin = 5.49741
vernier = 0.0625
vernier = 0.03125
vernier = 0.015625
vernier = 0.0078125
Gmin = 5.51716
vernier = 0.00390625
vernier = 0.00195313
vernier = 0.000976563
vernier = 0.000488281
Gmin = 5.50104
Gmin = 0
Gmin stepping failed

Starting source stepping with srcstepmethod=0
Source Step = 3.0303%
Source Step = 33.3333%
Source Step = 40.5303%
vernier = 0.015625
Source Step = 40.4179%
Source Step = 40.4474%
Source Step = 40.477%
Source Step = 40.5066%
Source Step = 40.5362%
vernier = 0.00146484
Source Step = 40.5673%
Source Step = 40.6117%
Source Step = 40.6561%
Source Step = 40.7005%
Source Step = 40.7449%
Source Step = 40.7892%
vernier = 0.00219727
Source Step = 40.8558%
Source Step = 40.9224%
Source Step = 40.989%
Source Step = 41.0556%
Source Step = 41.1222%
vernier = 0.0032959
Source Step = 41.2187%
Source Step = 41.3186%
Source Step = 41.4185%
Source Step = 41.5183%
Source Step = 41.6182%
vernier = 0.00494385
Source Step = 41.758%
Source Step = 41.9078%
Source Step = 42.0577%
Source Step = 42.2075%
Source Step = 42.3573%
vernier = 0.00741577
Source Step = 42.5595%
Source Step = 42.7843%
Source Step = 43.009%
Trouble finding operating point....skipping operating point for Transient analysis.

Date: Mon Dec 07 19:01:26 2015
Total elapsed time: 64.588 seconds.

tnom = 27
temp = 27
method = modified trap
totiter = 3685
traniter = 0
tranpoints = 1
accept = 1
rejected = 0
matrix size = 432
fillins = 12187
solver = Normal

