Circuit: * C:\Users\Mathias\Desktop\ST-375\rapportAfsnit\eProblemloesning\Design\Forstaerker\Forstærker - faktor 18.asc

Direct Newton iteration for .op point succeeded.

Date: Mon Nov 23 11:35:36 2015
Total elapsed time: 0.170 seconds.

tnom = 27
temp = 27
method = modified trap
totiter = 2110
traniter = 2088
tranpoints = 1045
accept = 1045
rejected = 0
matrix size = 29
fillins = 32
solver = Normal
Matrix Compiler1: 2.77 KB object code size  3.2/1.7/[1.1]
Matrix Compiler2: 2.94 KB object code size  1.7/2.1/[1.5]


