Circuit: * C:\Users\Cecilie\Dropbox\ST-375\rapportAfsnit\eProblemloesning\Design\Forstaerker\Forstærker - faktor 3.asc

Direct Newton iteration for .op point succeeded.

Date: Wed Nov 25 10:45:57 2015
Total elapsed time: 0.113 seconds.

tnom = 27
temp = 27
method = modified trap
totiter = 2108
traniter = 2088
tranpoints = 1045
accept = 1045
rejected = 0
matrix size = 29
fillins = 32
solver = Normal
Matrix Compiler1: 2.77 KB object code size  1.0/0.6/[0.4]
Matrix Compiler2: off  [0.6]/0.8/1.1


