Circuit: * C:\Users\Mathias\Desktop\ST-375\rapportAfsnit\eProblemloesning\Design\Forstaerker\Forstærker - faktor 18.asc

Direct Newton iteration for .op point succeeded.

Date: Fri Nov 20 14:26:03 2015
Total elapsed time: 0.311 seconds.

tnom = 27
temp = 27
method = modified trap
totiter = 2111
traniter = 2088
tranpoints = 1045
accept = 1045
rejected = 0
matrix size = 29
fillins = 39
solver = Normal
Matrix Compiler1: 3.48 KB object code size  3.5/2.1/[1.2]
Matrix Compiler2: 3.05 KB object code size  1.7/2.3/[1.4]


