Circuit: * C:\Users\Mathias\Desktop\ST-375\rapportAfsnit\eProblemloesning\Design\Forstaerker\Forstærker - faktor 18.asc

Direct Newton iteration for .op point succeeded.

Date: Thu Nov 19 15:54:03 2015
Total elapsed time: 0.114 seconds.

tnom = 27
temp = 27
method = modified trap
totiter = 2111
traniter = 2088
tranpoints = 1045
accept = 1045
rejected = 0
matrix size = 29
fillins = 39
solver = Normal
Matrix Compiler1: 3.48 KB object code size  1.1/0.5/[0.3]
Matrix Compiler2: off  [0.5]/0.6/0.7


