Circuit: * C:\Users\Cecilie\Dropbox\ST-375\rapportAfsnit\eProblemloesning\Design\Forstaerker\Forstærker - faktor 18.asc

Direct Newton iteration for .op point succeeded.

Date: Tue Nov 24 15:11:32 2015
Total elapsed time: 0.102 seconds.

tnom = 27
temp = 27
method = modified trap
totiter = 2115
traniter = 2088
tranpoints = 1045
accept = 1045
rejected = 0
matrix size = 29
fillins = 32
solver = Normal
Matrix Compiler1: 2.77 KB object code size  0.9/0.5/[0.3]
Matrix Compiler2: 2.94 KB object code size  0.5/0.7/[0.4]


