Circuit: * C:\Users\User\Desktop\ST-375\rapportAfsnit\eProblemloesning\Design\Forstaerker\Forstærker - faktor 3.asc

Direct Newton iteration for .op point succeeded.

Date: Mon Nov 30 17:13:50 2015
Total elapsed time: 0.150 seconds.

tnom = 27
temp = 27
method = modified trap
totiter = 2110
traniter = 2088
tranpoints = 1045
accept = 1045
rejected = 0
matrix size = 29
fillins = 32
solver = Normal
Matrix Compiler1: 2.77 KB object code size  2.9/2.1/[1.7]
Matrix Compiler2: off  [2.2]/2.6/2.6


