Circuit: * C:\Users\Cecilie\Dropbox\ST-375\rapportAfsnit\eProblemloesning\Design\Forstaerker\Forstærker - faktor 3.asc

Direct Newton iteration for .op point succeeded.

Date: Tue Nov 24 15:35:20 2015
Total elapsed time: 0.101 seconds.

tnom = 27
temp = 27
method = modified trap
totiter = 2125
traniter = 2088
tranpoints = 1045
accept = 1045
rejected = 0
matrix size = 29
fillins = 38
solver = Normal
Matrix Compiler1: 2.84 KB object code size  0.9/0.6/[0.3]
Matrix Compiler2: 3.06 KB object code size  0.5/1.1/[0.5]


