Circuit: * C:\Users\Cecilie\Dropbox\ST-375\rapportAfsnit\eProblemloesning\Design\Forstaerker\Forstærker - faktor 3.asc

Direct Newton iteration for .op point succeeded.

Date: Wed Nov 25 12:02:18 2015
Total elapsed time: 0.080 seconds.

tnom = 27
temp = 27
method = modified trap
totiter = 2109
traniter = 2088
tranpoints = 1045
accept = 1045
rejected = 0
matrix size = 29
fillins = 32
solver = Normal
Matrix Compiler1: 2.77 KB object code size  1.0/0.6/[0.3]
Matrix Compiler2: 2.94 KB object code size  0.6/0.8/[0.5]


